inputs/gridlabd/1225124862/model_base.glm
object regulator_configuration {
  name "rcon_reg1a";
  connect_type WYE_WYE;
	Control MANUAL; // LINE_DROP_COMP;
  // use these for OUTPUT_VOLTAGE mode
  // band_center 2400.000000;
  // band_width 40.000000;
  // use these for LINE_DROP_COMP mode
  // band_center 120.000000;
  // band_width 2.000000;
  // transducer ratios only apply to LINE_DROP_COMP mode
  current_transducer_ratio 3500.000000;
  power_transducer_ratio 20.000000;
  dwell_time 15.000000;
  raise_taps 16;
  lower_taps 16;
  regulation 0.100000;
  Type B;
  compensator_r_setting_A 3.000000;
  compensator_r_setting_B 3.000000;
  compensator_r_setting_C 3.000000;
  compensator_x_setting_A 7.500000;
  compensator_x_setting_B 7.500000;
  compensator_x_setting_C 7.500000;
  // comment out the manual tap settings if using automatic control
  tap_pos_A 3;
  tap_pos_B 3;
  tap_pos_C 3;
}
object regulator {
  name "reg_reg1a";
  from "150";
  to "150r";
  phases ABC;
  configuration "rcon_reg1a";
  continuous_rating_A 763.32;
  continuous_rating_B 763.32;
  continuous_rating_C 763.32;
  emergency_rating_A 1040.90;
  emergency_rating_B 1040.90;
  emergency_rating_C 1040.90;
}
object regulator_configuration {
  name "rcon_reg4";
  connect_type WYE_WYE;
	Control MANUAL; // LINE_DROP_COMP;
  // use these for OUTPUT_VOLTAGE mode
  // band_center 2480.000000;
  // band_width 40.000000;
  // use these for LINE_DROP_COMP mode
  // band_center 124.000000;
  // band_width 2.000000;
  // transducer ratios only apply to LINE_DROP_COMP mode
  current_transducer_ratio 1500.000000;
  power_transducer_ratio 20.000000;
  dwell_time 15.000000;
  raise_taps 16;
  lower_taps 16;
  regulation 0.100000;
  Type B;
  compensator_r_setting_A 0.600000;
  compensator_x_setting_A 1.300000;
  // comment out the manual tap setting if using automatic control
  tap_pos_A 4;
  compensator_r_setting_B 1.400000;
  compensator_x_setting_B 2.600000;
  // comment out the manual tap setting if using automatic control
  tap_pos_B 3;
  compensator_r_setting_C 0.200000;
  compensator_x_setting_C 1.400000;
  // comment out the manual tap setting if using automatic control
  tap_pos_C 7;
}
object regulator {
  name "reg_reg4";
  from "160";
  to "160r";
  phases ABC;
  configuration "rcon_reg4";
  continuous_rating_A 915.90;
  continuous_rating_B 915.90;
  continuous_rating_C 915.90;
  emergency_rating_A 1248.96;
  emergency_rating_B 1248.96;
  emergency_rating_C 1248.96;
}
object regulator_configuration {
  name "rcon_reg3";
  connect_type WYE_WYE;
	Control MANUAL; // LINE_DROP_COMP;
  // use these for OUTPUT_VOLTAGE mode
  // band_center 2400.000000;
  // band_width 20.000000;
  // use these for LINE_DROP_COMP mode
  // band_center 120.000000;
  // band_width 1.000000;
  // transducer ratios only apply to LINE_DROP_COMP mode
  current_transducer_ratio 250.000000;
  power_transducer_ratio 20.000000;
  dwell_time 15.000000;
  raise_taps 16;
  lower_taps 16;
  regulation 0.100000;
  Type B;
  compensator_r_setting_A 0.400000;
  compensator_x_setting_A 0.400000;
  // comment out the manual tap setting if using automatic control
  tap_pos_A -2;
  compensator_r_setting_C 0.400000;
  compensator_x_setting_C 0.400000;
  // comment out the manual tap setting if using automatic control
  tap_pos_C 3;
}
object regulator {
  name "reg_reg3";
  from "25";
  to "25r";
  phases AC;
  configuration "rcon_reg3";
  continuous_rating_A 915.90;
  continuous_rating_C 915.90;
  emergency_rating_A 1248.96;
  emergency_rating_C 1248.96;
}
object regulator_configuration {
  name "rcon_reg2";
  connect_type WYE_WYE;
	Control MANUAL; // LINE_DROP_COMP;
  // use these for OUTPUT_VOLTAGE mode
  // band_center 2400.000000;
  // band_width 40.000000;
  // use these for LINE_DROP_COMP mode
  // band_center 120.000000;
  // band_width 2.000000;
  // transducer ratios only apply to LINE_DROP_COMP mode
  current_transducer_ratio 250.000000;
  power_transducer_ratio 20.000000;
  dwell_time 15.000000;
  raise_taps 16;
  lower_taps 16;
  regulation 0.100000;
  Type B;
  compensator_r_setting_A 0.400000;
  compensator_x_setting_A 0.400000;
  // comment out the manual tap setting if using automatic control
  tap_pos_A -1;
}
object regulator {
  name "reg_reg2";
  from "9";
  to "9r";
  phases A;
  configuration "rcon_reg2";
  continuous_rating_A 915.90;
  emergency_rating_A 1248.96;
}
object line_configuration {
  name "lcon_11_C";
  z33 1.32920+1.34750j;
  c33 11.9873;
}
object line_configuration {
  name "lcon_1_ABC";
  z11 0.457600+1.07800j;
  c11 15.0567;
  z12 0.156000+0.501700j;
  c12 -4.8590;
  z13 0.153500+0.384900j;
  c13 -1.8519;
  z21 0.156000+0.501700j;
  c21 -4.8590;
  z22 0.466600+1.04820j;
  c22 15.8641;
  z23 0.158000+0.423600j;
  c23 -3.0888;
  z31 0.153500+0.384900j;
  c31 -1.8519;
  z32 0.158000+0.423600j;
  c32 -3.0888;
  z33 0.461500+1.06510j;
  c33 14.3156;
}
object line_configuration {
  name "lcon_12_ABC";
  z11 1.52090+0.752100j;
  c11 178.3093;
  z12 0.519800+0.277500j;
  c12 0.0000;
  z13 0.492400+0.215700j;
  c13 0.0000;
  z21 0.519800+0.277500j;
  c21 0.0000;
  z22 1.53290+0.716200j;
  c22 178.3093;
  z23 0.519800+0.277500j;
  c23 0.0000;
  z31 0.492400+0.215700j;
  c31 0.0000;
  z32 0.519800+0.277500j;
  c32 0.0000;
  z33 1.52090+0.752100j;
  c33 178.3093;
}
object line_configuration {
  name "lcon_2_ABC";
  z11 0.466600+1.04820j;
  c11 15.8641;
  z12 0.158000+0.423600j;
  c12 -3.0888;
  z13 0.156000+0.501700j;
  c13 -4.8590;
  z21 0.158000+0.423600j;
  c21 -3.0888;
  z22 0.461500+1.06510j;
  c22 14.3156;
  z23 0.153500+0.384900j;
  c23 -1.8519;
  z31 0.156000+0.501700j;
  c31 -4.8590;
  z32 0.153500+0.384900j;
  c32 -1.8519;
  z33 0.457600+1.07800j;
  c33 15.0567;
}
object line_configuration {
  name "lcon_3_ABC";
  z11 0.461500+1.06510j;
  c11 14.3156;
  z12 0.153500+0.384900j;
  c12 -1.8519;
  z13 0.158000+0.423600j;
  c13 -3.0888;
  z21 0.153500+0.384900j;
  c21 -1.8519;
  z22 0.457600+1.07800j;
  c22 15.0567;
  z23 0.156000+0.501700j;
  c23 -4.8590;
  z31 0.158000+0.423600j;
  c31 -3.0888;
  z32 0.156000+0.501700j;
  c32 -4.8590;
  z33 0.466600+1.04820j;
  c33 15.8641;
}
object line_configuration {
  name "lcon_4_ABC";
  z11 0.461500+1.06510j;
  c11 14.3156;
  z12 0.158000+0.423600j;
  c12 3.0888;
  z13 0.153500+0.384900j;
  c13 -1.8519;
  z21 0.158000+0.423600j;
  c21 3.0888;
  z22 0.466600+1.04820j;
  c22 15.8641;
  z23 0.156000+0.501700j;
  c23 -4.8590;
  z31 0.153500+0.384900j;
  c31 -1.8519;
  z32 0.156000+0.501700j;
  c32 -4.8590;
  z33 0.457600+1.07800j;
  c33 15.0567;
}
object line_configuration {
  name "lcon_5_ABC";
  z11 0.466600+1.04820j;
  c11 15.8641;
  z12 0.156000+0.501700j;
  c12 -4.8590;
  z13 0.158000+0.423600j;
  c13 -3.0888;
  z21 0.156000+0.501700j;
  c21 -4.8590;
  z22 0.457600+1.07800j;
  c22 15.0567;
  z23 0.153500+0.384900j;
  c23 -1.8519;
  z31 0.158000+0.423600j;
  c31 -3.0888;
  z32 0.153500+0.384900j;
  c32 -1.8519;
  z33 0.461500+1.06510j;
  c33 14.3156;
}
object line_configuration {
  name "lcon_6_ABC";
  z11 0.457600+1.07800j;
  c11 15.0567;
  z12 0.153500+0.384900j;
  c12 -1.8519;
  z13 0.156000+0.501700j;
  c13 -4.8590;
  z21 0.153500+0.384900j;
  c21 -1.8519;
  z22 0.461500+1.06510j;
  c22 14.3156;
  z23 0.158000+0.423600j;
  c23 -3.0888;
  z31 0.156000+0.501700j;
  c31 -4.8590;
  z32 0.158000+0.423600j;
  c32 -3.0888;
  z33 0.466600+1.04820j;
  c33 15.8641;
}
object line_configuration {
  name "lcon_7_AC";
  z11 0.457600+1.07800j;
  c11 13.5684;
  z13 0.153500+0.384900j;
  c13 -2.7981;
  z31 0.153500+0.384900j;
  c31 -2.7981;
  z33 0.461500+1.06510j;
  c33 13.7143;
}
object line_configuration {
  name "lcon_8_AB";
  z11 0.457600+1.07800j;
  c11 13.5684;
  z12 0.153500+0.384900j;
  c12 -2.7981;
  z21 0.153500+0.384900j;
  c21 -2.7981;
  z22 0.461500+1.06510j;
  c22 13.7143;
}
object line_configuration {
  name "lcon_9_A";
  z11 1.32920+1.34750j;
  c11 11.9873;
}
object line_configuration {
  name "lcon_10_B";
  z22 1.32920+1.34750j;
  c22 11.9873;
}
object transformer_configuration {
  name "xcon_ct50";
  power_rating 50.000;
  primary_voltage 2400.000;
  secondary_voltage 120.000;
  connect_type SINGLE_PHASE_CENTER_TAPPED;
  impedance 0.00600000+0.0163200j;
  impedance1 0.0120000+0.00816000j;
  impedance2 0.0120000+0.00816000j;
  shunt_reactance 200.000000;
  shunt_resistance 500.000000;
}
object transformer_configuration {
  name "xcon_ct100";
  power_rating 100.000;
  primary_voltage 2400.000;
  secondary_voltage 120.000;
  connect_type SINGLE_PHASE_CENTER_TAPPED;
  impedance 0.00600000+0.0163200j;
  impedance1 0.0120000+0.00816000j;
  impedance2 0.0120000+0.00816000j;
  shunt_reactance 200.000000;
  shunt_resistance 500.000000;
}
object transformer_configuration {
  name "xcon_ct25";
  power_rating 25.000;
  primary_voltage 2400.000;
  secondary_voltage 120.000;
  connect_type SINGLE_PHASE_CENTER_TAPPED;
  impedance 0.00600000+0.0163200j;
  impedance1 0.0120000+0.00816000j;
  impedance2 0.0120000+0.00816000j;
  shunt_reactance 200.000000;
  shunt_resistance 500.000000;
}
object capacitor {
  name "cap_c88a";
  parent "88";
  phases AN;
  phases_connected AN;
  cap_nominal_voltage 2402.00;
  capacitor_A 50000.00;
  switchA CLOSED;
}
object capacitor {
  name "cap_c90b";
  parent "90";
  phases BN;
  phases_connected BN;
  cap_nominal_voltage 2402.00;
  capacitor_B 50000.00;
  switchB CLOSED;
}
object capacitor {
  name "cap_c92c";
  parent "92";
  phases CN;
  phases_connected CN;
  cap_nominal_voltage 2402.00;
  capacitor_C 50000.00;
  switchC CLOSED;
}
object capacitor {
  name "cap_c83";
  parent "83";
  phases ABCN;
  phases_connected ABCN;
  cap_nominal_voltage 2401.78;
  capacitor_A 200000.00;
  switchA CLOSED;
  capacitor_B 200000.00;
  switchB CLOSED;
  capacitor_C 200000.00;
  switchC CLOSED;
}
object inverter {
  name "inv_pv_dg_90";
  parent "113_pvmtr";
  phases AN;
  generator_status ONLINE;
  four_quadrant_control_mode CONSTANT_PQ;
  inverter_type FOUR_QUADRANT;
  inverter_efficiency 1.0;
  power_factor 1.0;
  V_base 2400.000;
  rated_power 350000.000;
  P_Out 350000.000;
  Q_Out 0.000;
  object solar {
    name "pv_dg_90";
    generator_mode SUPPLY_DRIVEN;
    generator_status ONLINE;
    panel_type SINGLE_CRYSTAL_SILICON;
    efficiency 0.2;
    rated_power 350000.000;
  };
}
object inverter {
  name "inv_pv_dg_72";
  parent "87_pvmtr";
  phases BN;
  generator_status ONLINE;
  four_quadrant_control_mode CONSTANT_PQ;
  inverter_type FOUR_QUADRANT;
  inverter_efficiency 1.0;
  power_factor 1.0;
  V_base 2400.000;
  rated_power 280000.000;
  P_Out 280000.000;
  Q_Out 0.000;
  object solar {
    name "pv_dg_72";
    generator_mode SUPPLY_DRIVEN;
    generator_status ONLINE;
    panel_type SINGLE_CRYSTAL_SILICON;
    efficiency 0.2;
    rated_power 280000.000;
  };
}
object inverter {
  name "inv_pv_dg_60";
  parent "75_pvmtr";
  phases CN;
  generator_status ONLINE;
  four_quadrant_control_mode CONSTANT_PQ;
  inverter_type FOUR_QUADRANT;
  inverter_efficiency 1.0;
  power_factor 1.0;
  V_base 2400.000;
  rated_power 260000.000;
  P_Out 260000.000;
  Q_Out 0.000;
  object solar {
    name "pv_dg_60";
    generator_mode SUPPLY_DRIVEN;
    generator_status ONLINE;
    panel_type SINGLE_CRYSTAL_SILICON;
    efficiency 0.2;
    rated_power 260000.000;
  };
}
object inverter {
  name "inv_pv_dg_30";
  parent "43_pvmtr";
  phases BN;
  generator_status ONLINE;
  four_quadrant_control_mode CONSTANT_PQ;
  inverter_type FOUR_QUADRANT;
  inverter_efficiency 1.0;
  power_factor 1.0;
  V_base 2400.000;
  rated_power 300000.000;
  P_Out 300000.000;
  Q_Out 0.000;
  object solar {
    name "pv_dg_30";
    generator_mode SUPPLY_DRIVEN;
    generator_status ONLINE;
    panel_type SINGLE_CRYSTAL_SILICON;
    efficiency 0.2;
    rated_power 300000.000;
  };
}
object inverter {
  name "inv_pv_dg_84";
  parent "104_pvmtr";
  phases CN;
  generator_status ONLINE;
  four_quadrant_control_mode CONSTANT_PQ;
  inverter_type FOUR_QUADRANT;
  inverter_efficiency 1.0;
  power_factor 1.0;
  V_base 2400.000;
  rated_power 300000.000;
  P_Out 300000.000;
  Q_Out 0.000;
  object solar {
    name "pv_dg_84";
    generator_mode SUPPLY_DRIVEN;
    generator_status ONLINE;
    panel_type SINGLE_CRYSTAL_SILICON;
    efficiency 0.2;
    rated_power 300000.000;
  };
}
object inverter {
  name "inv_pv_dg_54";
  parent "68_pvmtr";
  phases AN;
  generator_status ONLINE;
  four_quadrant_control_mode CONSTANT_PQ;
  inverter_type FOUR_QUADRANT;
  inverter_efficiency 1.0;
  power_factor 1.0;
  V_base 2400.000;
  rated_power 130000.000;
  P_Out 130000.000;
  Q_Out 0.000;
  object solar {
    name "pv_dg_54";
    generator_mode SUPPLY_DRIVEN;
    generator_status ONLINE;
    panel_type SINGLE_CRYSTAL_SILICON;
    efficiency 0.2;
    rated_power 130000.000;
  };
}
object inverter {
  name "inv_pv_dg_42";
  parent "55_pvmtr";
  phases AN;
  generator_status ONLINE;
  four_quadrant_control_mode CONSTANT_PQ;
  inverter_type FOUR_QUADRANT;
  inverter_efficiency 1.0;
  power_factor 1.0;
  V_base 2400.000;
  rated_power 150000.000;
  P_Out 150000.000;
  Q_Out 0.000;
  object solar {
    name "pv_dg_42";
    generator_mode SUPPLY_DRIVEN;
    generator_status ONLINE;
    panel_type SINGLE_CRYSTAL_SILICON;
    efficiency 0.2;
    rated_power 150000.000;
  };
}
object inverter {
  name "inv_pv_dg_12";
  parent "17_pvmtr";
  phases CN;
  generator_status ONLINE;
  four_quadrant_control_mode CONSTANT_PQ;
  inverter_type FOUR_QUADRANT;
  inverter_efficiency 1.0;
  power_factor 1.0;
  V_base 2400.000;
  rated_power 120000.000;
  P_Out 120000.000;
  Q_Out 0.000;
  object solar {
    name "pv_dg_12";
    generator_mode SUPPLY_DRIVEN;
    generator_status ONLINE;
    panel_type SINGLE_CRYSTAL_SILICON;
    efficiency 0.2;
    rated_power 120000.000;
  };
}
object inverter {
  name "inv_pv_dg_78";
  parent "96_pvmtr";
  phases BN;
  generator_status ONLINE;
  four_quadrant_control_mode CONSTANT_PQ;
  inverter_type FOUR_QUADRANT;
  inverter_efficiency 1.0;
  power_factor 1.0;
  V_base 2400.000;
  rated_power 150000.000;
  P_Out 150000.000;
  Q_Out 0.000;
  object solar {
    name "pv_dg_78";
    generator_mode SUPPLY_DRIVEN;
    generator_status ONLINE;
    panel_type SINGLE_CRYSTAL_SILICON;
    efficiency 0.2;
    rated_power 150000.000;
  };
}
object inverter {
  name "inv_pv_dg_66";
  parent "80_pvmtr";
  phases BN;
  generator_status ONLINE;
  four_quadrant_control_mode CONSTANT_PQ;
  inverter_type FOUR_QUADRANT;
  inverter_efficiency 1.0;
  power_factor 1.0;
  V_base 2400.000;
  rated_power 260000.000;
  P_Out 260000.000;
  Q_Out 0.000;
  object solar {
    name "pv_dg_66";
    generator_mode SUPPLY_DRIVEN;
    generator_status ONLINE;
    panel_type SINGLE_CRYSTAL_SILICON;
    efficiency 0.2;
    rated_power 260000.000;
  };
}
object inverter {
  name "inv_pv_dg_36";
  parent "49_pvmtr";
  phases BN;
  generator_status ONLINE;
  four_quadrant_control_mode CONSTANT_PQ;
  inverter_type FOUR_QUADRANT;
  inverter_efficiency 1.0;
  power_factor 1.0;
  V_base 2400.000;
  rated_power 400000.000;
  P_Out 400000.000;
  Q_Out 0.000;
  object solar {
    name "pv_dg_36";
    generator_mode SUPPLY_DRIVEN;
    generator_status ONLINE;
    panel_type SINGLE_CRYSTAL_SILICON;
    efficiency 0.2;
    rated_power 400000.000;
  };
}
object inverter {
  name "inv_pv_dg_48";
  parent "63_pvmtr";
  phases AN;
  generator_status ONLINE;
  four_quadrant_control_mode CONSTANT_PQ;
  inverter_type FOUR_QUADRANT;
  inverter_efficiency 1.0;
  power_factor 1.0;
  V_base 2400.000;
  rated_power 250000.000;
  P_Out 250000.000;
  Q_Out 0.000;
  object solar {
    name "pv_dg_48";
    generator_mode SUPPLY_DRIVEN;
    generator_status ONLINE;
    panel_type SINGLE_CRYSTAL_SILICON;
    efficiency 0.2;
    rated_power 250000.000;
  };
}
object inverter {
  name "inv_pv_dg_18";
  parent "29_pvmtr";
  phases AN;
  generator_status ONLINE;
  four_quadrant_control_mode CONSTANT_PQ;
  inverter_type FOUR_QUADRANT;
  inverter_efficiency 1.0;
  power_factor 1.0;
  V_base 2400.000;
  rated_power 250000.000;
  P_Out 250000.000;
  Q_Out 0.000;
  object solar {
    name "pv_dg_18";
    generator_mode SUPPLY_DRIVEN;
    generator_status ONLINE;
    panel_type SINGLE_CRYSTAL_SILICON;
    efficiency 0.2;
    rated_power 250000.000;
  };
}
object inverter {
  name "inv_pv_dg_6";
  parent "7_pvmtr";
  phases AN;
  generator_status ONLINE;
  four_quadrant_control_mode CONSTANT_PQ;
  inverter_type FOUR_QUADRANT;
  inverter_efficiency 1.0;
  power_factor 1.0;
  V_base 2400.000;
  rated_power 120000.000;
  P_Out 120000.000;
  Q_Out 0.000;
  object solar {
    name "pv_dg_6";
    generator_mode SUPPLY_DRIVEN;
    generator_status ONLINE;
    panel_type SINGLE_CRYSTAL_SILICON;
    efficiency 0.2;
    rated_power 120000.000;
  };
}
object overhead_line {
  name "line_l50";
  from "50";
  to "51";
  phases ABC;
  length 250.0046;
  continuous_rating_A 400.00;
  continuous_rating_B 400.00;
  continuous_rating_C 400.00;
  emergency_rating_A 600.00;
  emergency_rating_B 600.00;
  emergency_rating_C 600.00;
  configuration "lcon_4_ABC";
}
object overhead_line {
  name "line_l52";
  from "52";
  to "53";
  phases ABC;
  length 200.0037;
  continuous_rating_A 400.00;
  continuous_rating_B 400.00;
  continuous_rating_C 400.00;
  emergency_rating_A 600.00;
  emergency_rating_B 600.00;
  emergency_rating_C 600.00;
  configuration "lcon_1_ABC";
}
object overhead_line {
  name "line_l51";
  from "51";
  to "151";
  phases ABC;
  length 500.0092;
  continuous_rating_A 400.00;
  continuous_rating_B 400.00;
  continuous_rating_C 400.00;
  emergency_rating_A 600.00;
  emergency_rating_B 600.00;
  emergency_rating_C 600.00;
  configuration "lcon_4_ABC";
}
object overhead_line {
  name "line_l54";
  from "54";
  to "55";
  phases ABC;
  length 275.0050;
  continuous_rating_A 400.00;
  continuous_rating_B 400.00;
  continuous_rating_C 400.00;
  emergency_rating_A 600.00;
  emergency_rating_B 600.00;
  emergency_rating_C 600.00;
  configuration "lcon_1_ABC";
}
object overhead_line {
  name "line_l53";
  from "53";
  to "54";
  phases ABC;
  length 125.0023;
  continuous_rating_A 400.00;
  continuous_rating_B 400.00;
  continuous_rating_C 400.00;
  emergency_rating_A 600.00;
  emergency_rating_B 600.00;
  emergency_rating_C 600.00;
  configuration "lcon_1_ABC";
}
object overhead_line {
  name "line_l56";
  from "55";
  to "56";
  phases ABC;
  length 275.0050;
  continuous_rating_A 400.00;
  continuous_rating_B 400.00;
  continuous_rating_C 400.00;
  emergency_rating_A 600.00;
  emergency_rating_B 600.00;
  emergency_rating_C 600.00;
  configuration "lcon_1_ABC";
}
object overhead_line {
  name "line_l55";
  from "54";
  to "57";
  phases ABC;
  length 350.0064;
  continuous_rating_A 400.00;
  continuous_rating_B 400.00;
  continuous_rating_C 400.00;
  emergency_rating_A 600.00;
  emergency_rating_B 600.00;
  emergency_rating_C 600.00;
  configuration "lcon_3_ABC";
}
object overhead_line {
  name "line_l58";
  from "57";
  to "60";
  phases ABC;
  length 750.0137;
  continuous_rating_A 400.00;
  continuous_rating_B 400.00;
  continuous_rating_C 400.00;
  emergency_rating_A 600.00;
  emergency_rating_B 600.00;
  emergency_rating_C 600.00;
  configuration "lcon_3_ABC";
}
object overhead_line {
  name "line_l57";
  from "57";
  to "58";
  phases B;
  length 250.0046;
  continuous_rating_B 400.00;
  emergency_rating_B 600.00;
  configuration "lcon_10_B";
}
object overhead_line {
  name "line_l59";
  from "58";
  to "59";
  phases B;
  length 250.0046;
  continuous_rating_B 400.00;
  emergency_rating_B 600.00;
  configuration "lcon_10_B";
}
object overhead_line {
  name "line_l111";
  from "110";
  to "112";
  phases A;
  length 125.0023;
  continuous_rating_A 400.00;
  emergency_rating_A 600.00;
  configuration "lcon_9_A";
}
object overhead_line {
  name "line_l110";
  from "110";
  to "111";
  phases A;
  length 575.0105;
  continuous_rating_A 400.00;
  emergency_rating_A 600.00;
  configuration "lcon_9_A";
}
object overhead_line {
  name "line_l113";
  from "113";
  to "114";
  phases A;
  length 325.0060;
  continuous_rating_A 400.00;
  emergency_rating_A 600.00;
  configuration "lcon_9_A";
}
object overhead_line {
  name "line_l112";
  from "112";
  to "113";
  phases A;
  length 525.0096;
  continuous_rating_A 400.00;
  emergency_rating_A 600.00;
  configuration "lcon_9_A";
}
object overhead_line {
  name "line_l115";
  from "149";
  to "1";
  phases ABC;
  length 400.0073;
  continuous_rating_A 400.00;
  continuous_rating_B 400.00;
  continuous_rating_C 400.00;
  emergency_rating_A 600.00;
  emergency_rating_B 600.00;
  emergency_rating_C 600.00;
  configuration "lcon_1_ABC";
}
object overhead_line {
  name "line_l114";
  from "135";
  to "35";
  phases ABC;
  length 375.0069;
  continuous_rating_A 400.00;
  continuous_rating_B 400.00;
  continuous_rating_C 400.00;
  emergency_rating_A 600.00;
  emergency_rating_B 600.00;
  emergency_rating_C 600.00;
  configuration "lcon_4_ABC";
}
object overhead_line {
  name "line_l117";
  from "160r";
  to "67";
  phases ABC;
  length 350.0064;
  continuous_rating_A 400.00;
  continuous_rating_B 400.00;
  continuous_rating_C 400.00;
  emergency_rating_A 600.00;
  emergency_rating_B 600.00;
  emergency_rating_C 600.00;
  configuration "lcon_6_ABC";
}
object overhead_line {
  name "line_l116";
  from "152";
  to "52";
  phases ABC;
  length 400.0073;
  continuous_rating_A 400.00;
  continuous_rating_B 400.00;
  continuous_rating_C 400.00;
  emergency_rating_A 600.00;
  emergency_rating_B 600.00;
  emergency_rating_C 600.00;
  configuration "lcon_1_ABC";
}
object overhead_line {
  name "line_l118";
  from "197";
  to "101";
  phases ABC;
  length 250.0046;
  continuous_rating_A 400.00;
  continuous_rating_B 400.00;
  continuous_rating_C 400.00;
  emergency_rating_A 600.00;
  emergency_rating_B 600.00;
  emergency_rating_C 600.00;
  configuration "lcon_3_ABC";
}
object overhead_line {
  name "line_l61";
  from "60";
  to "62";
  phases ABC;
  length 250.0046;
  continuous_rating_A 400.00;
  continuous_rating_B 400.00;
  continuous_rating_C 400.00;
  emergency_rating_A 600.00;
  emergency_rating_B 600.00;
  emergency_rating_C 600.00;
  configuration "lcon_12_ABC";
}
object overhead_line {
  name "line_l60";
  from "60";
  to "61";
  phases ABC;
  length 550.0101;
  continuous_rating_A 400.00;
  continuous_rating_B 400.00;
  continuous_rating_C 400.00;
  emergency_rating_A 600.00;
  emergency_rating_B 600.00;
  emergency_rating_C 600.00;
  configuration "lcon_5_ABC";
}
object overhead_line {
  name "line_l63";
  from "63";
  to "64";
  phases ABC;
  length 350.0064;
  continuous_rating_A 400.00;
  continuous_rating_B 400.00;
  continuous_rating_C 400.00;
  emergency_rating_A 600.00;
  emergency_rating_B 600.00;
  emergency_rating_C 600.00;
  configuration "lcon_12_ABC";
}
object overhead_line {
  name "line_l62";
  from "62";
  to "63";
  phases ABC;
  length 175.0032;
  continuous_rating_A 400.00;
  continuous_rating_B 400.00;
  continuous_rating_C 400.00;
  emergency_rating_A 600.00;
  emergency_rating_B 600.00;
  emergency_rating_C 600.00;
  configuration "lcon_12_ABC";
}
object overhead_line {
  name "line_l65";
  from "65";
  to "66";
  phases ABC;
  length 325.0060;
  continuous_rating_A 400.00;
  continuous_rating_B 400.00;
  continuous_rating_C 400.00;
  emergency_rating_A 600.00;
  emergency_rating_B 600.00;
  emergency_rating_C 600.00;
  configuration "lcon_12_ABC";
}
object overhead_line {
  name "line_l64";
  from "64";
  to "65";
  phases ABC;
  length 425.0078;
  continuous_rating_A 400.00;
  continuous_rating_B 400.00;
  continuous_rating_C 400.00;
  emergency_rating_A 600.00;
  emergency_rating_B 600.00;
  emergency_rating_C 600.00;
  configuration "lcon_12_ABC";
}
object overhead_line {
  name "line_l67";
  from "67";
  to "72";
  phases ABC;
  length 275.0050;
  continuous_rating_A 400.00;
  continuous_rating_B 400.00;
  continuous_rating_C 400.00;
  emergency_rating_A 600.00;
  emergency_rating_B 600.00;
  emergency_rating_C 600.00;
  configuration "lcon_3_ABC";
}
object overhead_line {
  name "line_l66";
  from "67";
  to "68";
  phases A;
  length 200.0037;
  continuous_rating_A 400.00;
  emergency_rating_A 600.00;
  configuration "lcon_9_A";
}
object overhead_line {
  name "line_l69";
  from "68";
  to "69";
  phases A;
  length 275.0050;
  continuous_rating_A 400.00;
  emergency_rating_A 600.00;
  configuration "lcon_9_A";
}
object overhead_line {
  name "line_l68";
  from "67";
  to "97";
  phases ABC;
  length 250.0046;
  continuous_rating_A 400.00;
  continuous_rating_B 400.00;
  continuous_rating_C 400.00;
  emergency_rating_A 600.00;
  emergency_rating_B 600.00;
  emergency_rating_C 600.00;
  configuration "lcon_3_ABC";
}
object overhead_line {
  name "line_l100";
  from "101";
  to "102";
  phases C;
  length 225.0041;
  continuous_rating_C 400.00;
  emergency_rating_C 600.00;
  configuration "lcon_11_C";
}
object overhead_line {
  name "line_l102";
  from "102";
  to "103";
  phases C;
  length 325.0060;
  continuous_rating_C 400.00;
  emergency_rating_C 600.00;
  configuration "lcon_11_C";
}
object overhead_line {
  name "line_l101";
  from "101";
  to "105";
  phases ABC;
  length 275.0050;
  continuous_rating_A 400.00;
  continuous_rating_B 400.00;
  continuous_rating_C 400.00;
  emergency_rating_A 600.00;
  emergency_rating_B 600.00;
  emergency_rating_C 600.00;
  configuration "lcon_3_ABC";
}
object overhead_line {
  name "line_l104";
  from "105";
  to "106";
  phases B;
  length 225.0041;
  continuous_rating_B 400.00;
  emergency_rating_B 600.00;
  configuration "lcon_10_B";
}
object overhead_line {
  name "line_l103";
  from "103";
  to "104";
  phases C;
  length 700.0128;
  continuous_rating_C 400.00;
  emergency_rating_C 600.00;
  configuration "lcon_11_C";
}
object overhead_line {
  name "line_l106";
  from "106";
  to "107";
  phases B;
  length 575.0105;
  continuous_rating_B 400.00;
  emergency_rating_B 600.00;
  configuration "lcon_10_B";
}
object overhead_line {
  name "line_l105";
  from "105";
  to "108";
  phases ABC;
  length 325.0060;
  continuous_rating_A 400.00;
  continuous_rating_B 400.00;
  continuous_rating_C 400.00;
  emergency_rating_A 600.00;
  emergency_rating_B 600.00;
  emergency_rating_C 600.00;
  configuration "lcon_3_ABC";
}
object overhead_line {
  name "line_l108";
  from "108";
  to "300";
  phases ABC;
  length 1000.0183;
  continuous_rating_A 400.00;
  continuous_rating_B 400.00;
  continuous_rating_C 400.00;
  emergency_rating_A 600.00;
  emergency_rating_B 600.00;
  emergency_rating_C 600.00;
  configuration "lcon_3_ABC";
}
object overhead_line {
  name "line_l107";
  from "108";
  to "109";
  phases A;
  length 450.0082;
  continuous_rating_A 400.00;
  emergency_rating_A 600.00;
  configuration "lcon_9_A";
}
object overhead_line {
  name "line_l109";
  from "109";
  to "110";
  phases A;
  length 300.0055;
  continuous_rating_A 400.00;
  emergency_rating_A 600.00;
  configuration "lcon_9_A";
}
object overhead_line {
  name "line_l70";
  from "69";
  to "70";
  phases A;
  length 325.0060;
  continuous_rating_A 400.00;
  emergency_rating_A 600.00;
  configuration "lcon_9_A";
}
object overhead_line {
  name "line_l1";
  from "1";
  to "2";
  phases B;
  length 175.0032;
  continuous_rating_B 400.00;
  emergency_rating_B 600.00;
  configuration "lcon_10_B";
}
object overhead_line {
  name "line_l2";
  from "1";
  to "3";
  phases C;
  length 250.0046;
  continuous_rating_C 400.00;
  emergency_rating_C 600.00;
  configuration "lcon_11_C";
}
object overhead_line {
  name "line_l72";
  from "72";
  to "73";
  phases C;
  length 275.0050;
  continuous_rating_C 400.00;
  emergency_rating_C 600.00;
  configuration "lcon_11_C";
}
object overhead_line {
  name "line_l3";
  from "1";
  to "7";
  phases ABC;
  length 300.0055;
  continuous_rating_A 400.00;
  continuous_rating_B 400.00;
  continuous_rating_C 400.00;
  emergency_rating_A 600.00;
  emergency_rating_B 600.00;
  emergency_rating_C 600.00;
  configuration "lcon_1_ABC";
}
object overhead_line {
  name "line_l71";
  from "70";
  to "71";
  phases A;
  length 275.0050;
  continuous_rating_A 400.00;
  emergency_rating_A 600.00;
  configuration "lcon_9_A";
}
object overhead_line {
  name "line_l4";
  from "3";
  to "4";
  phases C;
  length 200.0037;
  continuous_rating_C 400.00;
  emergency_rating_C 600.00;
  configuration "lcon_11_C";
}
object overhead_line {
  name "line_l74";
  from "73";
  to "74";
  phases C;
  length 350.0064;
  continuous_rating_C 400.00;
  emergency_rating_C 600.00;
  configuration "lcon_11_C";
}
object overhead_line {
  name "line_l5";
  from "3";
  to "5";
  phases C;
  length 325.0060;
  continuous_rating_C 400.00;
  emergency_rating_C 600.00;
  configuration "lcon_11_C";
}
object overhead_line {
  name "line_l73";
  from "72";
  to "76";
  phases ABC;
  length 200.0037;
  continuous_rating_A 400.00;
  continuous_rating_B 400.00;
  continuous_rating_C 400.00;
  emergency_rating_A 600.00;
  emergency_rating_B 600.00;
  emergency_rating_C 600.00;
  configuration "lcon_3_ABC";
}
object overhead_line {
  name "line_l6";
  from "5";
  to "6";
  phases C;
  length 250.0046;
  continuous_rating_C 400.00;
  emergency_rating_C 600.00;
  configuration "lcon_11_C";
}
object overhead_line {
  name "line_l76";
  from "76";
  to "77";
  phases ABC;
  length 400.0073;
  continuous_rating_A 400.00;
  continuous_rating_B 400.00;
  continuous_rating_C 400.00;
  emergency_rating_A 600.00;
  emergency_rating_B 600.00;
  emergency_rating_C 600.00;
  configuration "lcon_6_ABC";
}
object overhead_line {
  name "line_l7";
  from "7";
  to "8";
  phases ABC;
  length 200.0037;
  continuous_rating_A 400.00;
  continuous_rating_B 400.00;
  continuous_rating_C 400.00;
  emergency_rating_A 600.00;
  emergency_rating_B 600.00;
  emergency_rating_C 600.00;
  configuration "lcon_1_ABC";
}
object overhead_line {
  name "line_l75";
  from "74";
  to "75";
  phases C;
  length 400.0073;
  continuous_rating_C 400.00;
  emergency_rating_C 600.00;
  configuration "lcon_11_C";
}
object overhead_line {
  name "line_l78";
  from "77";
  to "78";
  phases ABC;
  length 100.0018;
  continuous_rating_A 400.00;
  continuous_rating_B 400.00;
  continuous_rating_C 400.00;
  emergency_rating_A 600.00;
  emergency_rating_B 600.00;
  emergency_rating_C 600.00;
  configuration "lcon_6_ABC";
}
object overhead_line {
  name "line_l8";
  from "8";
  to "12";
  phases B;
  length 225.0041;
  continuous_rating_B 400.00;
  emergency_rating_B 600.00;
  configuration "lcon_10_B";
}
object overhead_line {
  name "line_l77";
  from "76";
  to "86";
  phases ABC;
  length 700.0128;
  continuous_rating_A 400.00;
  continuous_rating_B 400.00;
  continuous_rating_C 400.00;
  emergency_rating_A 600.00;
  emergency_rating_B 600.00;
  emergency_rating_C 600.00;
  configuration "lcon_3_ABC";
}
object overhead_line {
  name "line_l9";
  from "8";
  to "9";
  phases A;
  length 225.0041;
  continuous_rating_A 400.00;
  emergency_rating_A 600.00;
  configuration "lcon_9_A";
}
object overhead_line {
  name "line_l79";
  from "78";
  to "79";
  phases ABC;
  length 225.0041;
  continuous_rating_A 400.00;
  continuous_rating_B 400.00;
  continuous_rating_C 400.00;
  emergency_rating_A 600.00;
  emergency_rating_B 600.00;
  emergency_rating_C 600.00;
  configuration "lcon_6_ABC";
}
object overhead_line {
  name "line_l81";
  from "80";
  to "81";
  phases ABC;
  length 175.0032;
  continuous_rating_A 400.00;
  continuous_rating_B 400.00;
  continuous_rating_C 400.00;
  emergency_rating_A 600.00;
  emergency_rating_B 600.00;
  emergency_rating_C 600.00;
  configuration "lcon_6_ABC";
}
object overhead_line {
  name "line_l80";
  from "78";
  to "80";
  phases ABC;
  length 475.0087;
  continuous_rating_A 400.00;
  continuous_rating_B 400.00;
  continuous_rating_C 400.00;
  emergency_rating_A 600.00;
  emergency_rating_B 600.00;
  emergency_rating_C 600.00;
  configuration "lcon_6_ABC";
}
object overhead_line {
  name "line_l83";
  from "81";
  to "84";
  phases C;
  length 675.0124;
  continuous_rating_C 400.00;
  emergency_rating_C 600.00;
  configuration "lcon_11_C";
}
object overhead_line {
  name "line_l82";
  from "81";
  to "82";
  phases ABC;
  length 250.0046;
  continuous_rating_A 400.00;
  continuous_rating_B 400.00;
  continuous_rating_C 400.00;
  emergency_rating_A 600.00;
  emergency_rating_B 600.00;
  emergency_rating_C 600.00;
  configuration "lcon_6_ABC";
}
object overhead_line {
  name "line_l85";
  from "84";
  to "85";
  phases C;
  length 475.0087;
  continuous_rating_C 400.00;
  emergency_rating_C 600.00;
  configuration "lcon_11_C";
}
object overhead_line {
  name "line_l84";
  from "82";
  to "83";
  phases ABC;
  length 250.0046;
  continuous_rating_A 400.00;
  continuous_rating_B 400.00;
  continuous_rating_C 400.00;
  emergency_rating_A 600.00;
  emergency_rating_B 600.00;
  emergency_rating_C 600.00;
  configuration "lcon_6_ABC";
}
object overhead_line {
  name "line_l87";
  from "87";
  to "88";
  phases A;
  length 175.0032;
  continuous_rating_A 400.00;
  emergency_rating_A 600.00;
  configuration "lcon_9_A";
}
object overhead_line {
  name "line_l86";
  from "86";
  to "87";
  phases ABC;
  length 450.0082;
  continuous_rating_A 400.00;
  continuous_rating_B 400.00;
  continuous_rating_C 400.00;
  emergency_rating_A 600.00;
  emergency_rating_B 600.00;
  emergency_rating_C 600.00;
  configuration "lcon_6_ABC";
}
object overhead_line {
  name "line_l89";
  from "89";
  to "90";
  phases B;
  length 250.0046;
  continuous_rating_B 400.00;
  emergency_rating_B 600.00;
  configuration "lcon_10_B";
}
object overhead_line {
  name "line_l88";
  from "87";
  to "89";
  phases ABC;
  length 275.0050;
  continuous_rating_A 400.00;
  continuous_rating_B 400.00;
  continuous_rating_C 400.00;
  emergency_rating_A 600.00;
  emergency_rating_B 600.00;
  emergency_rating_C 600.00;
  configuration "lcon_6_ABC";
}
object overhead_line {
  name "line_l90";
  from "89";
  to "91";
  phases ABC;
  length 225.0041;
  continuous_rating_A 400.00;
  continuous_rating_B 400.00;
  continuous_rating_C 400.00;
  emergency_rating_A 600.00;
  emergency_rating_B 600.00;
  emergency_rating_C 600.00;
  configuration "lcon_6_ABC";
}
object overhead_line {
  name "line_l92";
  from "91";
  to "93";
  phases ABC;
  length 225.0041;
  continuous_rating_A 400.00;
  continuous_rating_B 400.00;
  continuous_rating_C 400.00;
  emergency_rating_A 600.00;
  emergency_rating_B 600.00;
  emergency_rating_C 600.00;
  configuration "lcon_6_ABC";
}
object overhead_line {
  name "line_l91";
  from "91";
  to "92";
  phases C;
  length 300.0055;
  continuous_rating_C 400.00;
  emergency_rating_C 600.00;
  configuration "lcon_11_C";
}
object overhead_line {
  name "line_l94";
  from "93";
  to "95";
  phases ABC;
  length 300.0055;
  continuous_rating_A 400.00;
  continuous_rating_B 400.00;
  continuous_rating_C 400.00;
  emergency_rating_A 600.00;
  emergency_rating_B 600.00;
  emergency_rating_C 600.00;
  configuration "lcon_6_ABC";
}
object overhead_line {
  name "line_l93";
  from "93";
  to "94";
  phases A;
  length 275.0050;
  continuous_rating_A 400.00;
  emergency_rating_A 600.00;
  configuration "lcon_9_A";
}
object overhead_line {
  name "line_l96";
  from "97";
  to "98";
  phases ABC;
  length 275.0050;
  continuous_rating_A 400.00;
  continuous_rating_B 400.00;
  continuous_rating_C 400.00;
  emergency_rating_A 600.00;
  emergency_rating_B 600.00;
  emergency_rating_C 600.00;
  configuration "lcon_3_ABC";
}
object overhead_line {
  name "line_l95";
  from "95";
  to "96";
  phases B;
  length 200.0037;
  continuous_rating_B 400.00;
  emergency_rating_B 600.00;
  configuration "lcon_10_B";
}
object overhead_line {
  name "line_l10";
  from "8";
  to "13";
  phases ABC;
  length 300.0055;
  continuous_rating_A 400.00;
  continuous_rating_B 400.00;
  continuous_rating_C 400.00;
  emergency_rating_A 600.00;
  emergency_rating_B 600.00;
  emergency_rating_C 600.00;
  configuration "lcon_1_ABC";
}
object overhead_line {
  name "line_l98";
  from "99";
  to "100";
  phases ABC;
  length 300.0055;
  continuous_rating_A 400.00;
  continuous_rating_B 400.00;
  continuous_rating_C 400.00;
  emergency_rating_A 600.00;
  emergency_rating_B 600.00;
  emergency_rating_C 600.00;
  configuration "lcon_3_ABC";
}
object overhead_line {
  name "line_l97";
  from "98";
  to "99";
  phases ABC;
  length 550.0101;
  continuous_rating_A 400.00;
  continuous_rating_B 400.00;
  continuous_rating_C 400.00;
  emergency_rating_A 600.00;
  emergency_rating_B 600.00;
  emergency_rating_C 600.00;
  configuration "lcon_3_ABC";
}
object overhead_line {
  name "line_l12";
  from "13";
  to "34";
  phases C;
  length 150.0027;
  continuous_rating_C 400.00;
  emergency_rating_C 600.00;
  configuration "lcon_11_C";
}
object overhead_line {
  name "line_l11";
  from "9r";
  to "14";
  phases A;
  length 425.0078;
  continuous_rating_A 400.00;
  emergency_rating_A 600.00;
  configuration "lcon_9_A";
}
object overhead_line {
  name "line_l99";
  from "100";
  to "450";
  phases ABC;
  length 800.0147;
  continuous_rating_A 400.00;
  continuous_rating_B 400.00;
  continuous_rating_C 400.00;
  emergency_rating_A 600.00;
  emergency_rating_B 600.00;
  emergency_rating_C 600.00;
  configuration "lcon_3_ABC";
}
object overhead_line {
  name "line_l14";
  from "14";
  to "11";
  phases A;
  length 250.0046;
  continuous_rating_A 400.00;
  emergency_rating_A 600.00;
  configuration "lcon_9_A";
}
object overhead_line {
  name "line_l13";
  from "13";
  to "18";
  phases ABC;
  length 825.0151;
  continuous_rating_A 400.00;
  continuous_rating_B 400.00;
  continuous_rating_C 400.00;
  emergency_rating_A 600.00;
  emergency_rating_B 600.00;
  emergency_rating_C 600.00;
  configuration "lcon_2_ABC";
}
object overhead_line {
  name "line_l16";
  from "15";
  to "16";
  phases C;
  length 375.0069;
  continuous_rating_C 400.00;
  emergency_rating_C 600.00;
  configuration "lcon_11_C";
}
object overhead_line {
  name "line_l15";
  from "14";
  to "10";
  phases A;
  length 250.0046;
  continuous_rating_A 400.00;
  emergency_rating_A 600.00;
  configuration "lcon_9_A";
}
object overhead_line {
  name "line_l18";
  from "18";
  to "19";
  phases A;
  length 250.0046;
  continuous_rating_A 400.00;
  emergency_rating_A 600.00;
  configuration "lcon_9_A";
}
object overhead_line {
  name "line_l17";
  from "15";
  to "17";
  phases C;
  length 350.0064;
  continuous_rating_C 400.00;
  emergency_rating_C 600.00;
  configuration "lcon_11_C";
}
object overhead_line {
  name "line_l19";
  from "18";
  to "21";
  phases ABC;
  length 300.0055;
  continuous_rating_A 400.00;
  continuous_rating_B 400.00;
  continuous_rating_C 400.00;
  emergency_rating_A 600.00;
  emergency_rating_B 600.00;
  emergency_rating_C 600.00;
  configuration "lcon_2_ABC";
}
object overhead_line {
  name "line_l21";
  from "21";
  to "22";
  phases B;
  length 525.0096;
  continuous_rating_B 400.00;
  emergency_rating_B 600.00;
  configuration "lcon_10_B";
}
object overhead_line {
  name "line_l20";
  from "19";
  to "20";
  phases A;
  length 325.0060;
  continuous_rating_A 400.00;
  emergency_rating_A 600.00;
  configuration "lcon_9_A";
}
object overhead_line {
  name "line_l23";
  from "23";
  to "24";
  phases C;
  length 550.0101;
  continuous_rating_C 400.00;
  emergency_rating_C 600.00;
  configuration "lcon_11_C";
}
object overhead_line {
  name "line_l22";
  from "21";
  to "23";
  phases ABC;
  length 250.0046;
  continuous_rating_A 400.00;
  continuous_rating_B 400.00;
  continuous_rating_C 400.00;
  emergency_rating_A 600.00;
  emergency_rating_B 600.00;
  emergency_rating_C 600.00;
  configuration "lcon_2_ABC";
}
object overhead_line {
  name "line_l25";
  from "25r";
  to "26";
  phases AC;
  length 350.0064;
  continuous_rating_A 400.00;
  continuous_rating_C 400.00;
  emergency_rating_A 600.00;
  emergency_rating_C 600.00;
  configuration "lcon_7_AC";
}
object overhead_line {
  name "line_l24";
  from "23";
  to "25";
  phases ABC;
  length 275.0050;
  continuous_rating_A 400.00;
  continuous_rating_B 400.00;
  continuous_rating_C 400.00;
  emergency_rating_A 600.00;
  emergency_rating_B 600.00;
  emergency_rating_C 600.00;
  configuration "lcon_2_ABC";
}
object overhead_line {
  name "line_l27";
  from "26";
  to "27";
  phases AC;
  length 275.0050;
  continuous_rating_A 400.00;
  continuous_rating_C 400.00;
  emergency_rating_A 600.00;
  emergency_rating_C 600.00;
  configuration "lcon_7_AC";
}
object overhead_line {
  name "line_l26";
  from "25";
  to "28";
  phases ABC;
  length 200.0037;
  continuous_rating_A 400.00;
  continuous_rating_B 400.00;
  continuous_rating_C 400.00;
  emergency_rating_A 600.00;
  emergency_rating_B 600.00;
  emergency_rating_C 600.00;
  configuration "lcon_2_ABC";
}
object overhead_line {
  name "line_l29";
  from "27";
  to "33";
  phases A;
  length 500.0092;
  continuous_rating_A 400.00;
  emergency_rating_A 600.00;
  configuration "lcon_9_A";
}
object overhead_line {
  name "line_l28";
  from "26";
  to "31";
  phases C;
  length 225.0041;
  continuous_rating_C 400.00;
  emergency_rating_C 600.00;
  configuration "lcon_11_C";
}
object overhead_line {
  name "line_l30";
  from "28";
  to "29";
  phases ABC;
  length 300.0055;
  continuous_rating_A 400.00;
  continuous_rating_B 400.00;
  continuous_rating_C 400.00;
  emergency_rating_A 600.00;
  emergency_rating_B 600.00;
  emergency_rating_C 600.00;
  configuration "lcon_2_ABC";
}
object overhead_line {
  name "line_l32";
  from "30";
  to "250";
  phases ABC;
  length 200.0037;
  continuous_rating_A 400.00;
  continuous_rating_B 400.00;
  continuous_rating_C 400.00;
  emergency_rating_A 600.00;
  emergency_rating_B 600.00;
  emergency_rating_C 600.00;
  configuration "lcon_2_ABC";
}
object overhead_line {
  name "line_l31";
  from "29";
  to "30";
  phases ABC;
  length 350.0064;
  continuous_rating_A 400.00;
  continuous_rating_B 400.00;
  continuous_rating_C 400.00;
  emergency_rating_A 600.00;
  emergency_rating_B 600.00;
  emergency_rating_C 600.00;
  configuration "lcon_2_ABC";
}
object overhead_line {
  name "line_l34";
  from "34";
  to "15";
  phases C;
  length 100.0018;
  continuous_rating_C 400.00;
  emergency_rating_C 600.00;
  configuration "lcon_11_C";
}
object overhead_line {
  name "line_l33";
  from "31";
  to "32";
  phases C;
  length 300.0055;
  continuous_rating_C 400.00;
  emergency_rating_C 600.00;
  configuration "lcon_11_C";
}
object overhead_line {
  name "line_l36";
  from "35";
  to "40";
  phases ABC;
  length 250.0046;
  continuous_rating_A 400.00;
  continuous_rating_B 400.00;
  continuous_rating_C 400.00;
  emergency_rating_A 600.00;
  emergency_rating_B 600.00;
  emergency_rating_C 600.00;
  configuration "lcon_1_ABC";
}
object overhead_line {
  name "line_l35";
  from "35";
  to "36";
  phases AB;
  length 650.0119;
  continuous_rating_A 400.00;
  continuous_rating_B 400.00;
  emergency_rating_A 600.00;
  emergency_rating_B 600.00;
  configuration "lcon_8_AB";
}
object overhead_line {
  name "line_l38";
  from "36";
  to "38";
  phases B;
  length 250.0046;
  continuous_rating_B 400.00;
  emergency_rating_B 600.00;
  configuration "lcon_10_B";
}
object overhead_line {
  name "line_l37";
  from "36";
  to "37";
  phases A;
  length 300.0055;
  continuous_rating_A 400.00;
  emergency_rating_A 600.00;
  configuration "lcon_9_A";
}
object overhead_line {
  name "line_l39";
  from "38";
  to "39";
  phases B;
  length 325.0060;
  continuous_rating_B 400.00;
  emergency_rating_B 600.00;
  configuration "lcon_10_B";
}
object overhead_line {
  name "line_l41";
  from "40";
  to "42";
  phases ABC;
  length 250.0046;
  continuous_rating_A 400.00;
  continuous_rating_B 400.00;
  continuous_rating_C 400.00;
  emergency_rating_A 600.00;
  emergency_rating_B 600.00;
  emergency_rating_C 600.00;
  configuration "lcon_1_ABC";
}
object overhead_line {
  name "line_l40";
  from "40";
  to "41";
  phases C;
  length 325.0060;
  continuous_rating_C 400.00;
  emergency_rating_C 600.00;
  configuration "lcon_11_C";
}
object overhead_line {
  name "line_l43";
  from "42";
  to "44";
  phases ABC;
  length 200.0037;
  continuous_rating_A 400.00;
  continuous_rating_B 400.00;
  continuous_rating_C 400.00;
  emergency_rating_A 600.00;
  emergency_rating_B 600.00;
  emergency_rating_C 600.00;
  configuration "lcon_1_ABC";
}
object overhead_line {
  name "line_l42";
  from "42";
  to "43";
  phases B;
  length 500.0092;
  continuous_rating_B 400.00;
  emergency_rating_B 600.00;
  configuration "lcon_10_B";
}
object overhead_line {
  name "line_l45";
  from "44";
  to "47";
  phases ABC;
  length 250.0046;
  continuous_rating_A 400.00;
  continuous_rating_B 400.00;
  continuous_rating_C 400.00;
  emergency_rating_A 600.00;
  emergency_rating_B 600.00;
  emergency_rating_C 600.00;
  configuration "lcon_1_ABC";
}
object overhead_line {
  name "line_l44";
  from "44";
  to "45";
  phases A;
  length 200.0037;
  continuous_rating_A 400.00;
  emergency_rating_A 600.00;
  configuration "lcon_9_A";
}
object overhead_line {
  name "line_l47";
  from "47";
  to "48";
  phases ABC;
  length 150.0027;
  continuous_rating_A 400.00;
  continuous_rating_B 400.00;
  continuous_rating_C 400.00;
  emergency_rating_A 600.00;
  emergency_rating_B 600.00;
  emergency_rating_C 600.00;
  configuration "lcon_4_ABC";
}
object overhead_line {
  name "line_l46";
  from "45";
  to "46";
  phases A;
  length 300.0055;
  continuous_rating_A 400.00;
  emergency_rating_A 600.00;
  configuration "lcon_9_A";
}
object overhead_line {
  name "line_l49";
  from "49";
  to "50";
  phases ABC;
  length 250.0046;
  continuous_rating_A 400.00;
  continuous_rating_B 400.00;
  continuous_rating_C 400.00;
  emergency_rating_A 600.00;
  emergency_rating_B 600.00;
  emergency_rating_C 600.00;
  configuration "lcon_4_ABC";
}
object overhead_line {
  name "line_l48";
  from "47";
  to "49";
  phases ABC;
  length 250.0046;
  continuous_rating_A 400.00;
  continuous_rating_B 400.00;
  continuous_rating_C 400.00;
  emergency_rating_A 600.00;
  emergency_rating_B 600.00;
  emergency_rating_C 600.00;
  configuration "lcon_4_ABC";
}
object switch { // CIM LoadBreakSwitch
  name "swt_sw5";
  from "97";
  to "197";
  phases ABC;
  status CLOSED;
  continuous_rating_A 400.00;
  continuous_rating_B 400.00;
  continuous_rating_C 400.00;
  emergency_rating_A 600.00;
  emergency_rating_B 600.00;
  emergency_rating_C 600.00;
}
object switch { // CIM LoadBreakSwitch
  name "swt_sw4";
  from "60";
  to "160";
  phases ABC;
  status CLOSED;
  continuous_rating_A 400.00;
  continuous_rating_B 400.00;
  continuous_rating_C 400.00;
  emergency_rating_A 600.00;
  emergency_rating_B 600.00;
  emergency_rating_C 600.00;
}
object switch { // CIM LoadBreakSwitch
  name "swt_sw7";
  from "151";
  to "300_open";
  phases ABC;
  status CLOSED;
  continuous_rating_A 400.00;
  continuous_rating_B 400.00;
  continuous_rating_C 400.00;
  emergency_rating_A 600.00;
  emergency_rating_B 600.00;
  emergency_rating_C 600.00;
}
object switch { // CIM LoadBreakSwitch
  name "swt_sw6";
  from "61";
  to "61s";
  phases ABC;
  status CLOSED;
  continuous_rating_A 400.00;
  continuous_rating_B 400.00;
  continuous_rating_C 400.00;
  emergency_rating_A 600.00;
  emergency_rating_B 600.00;
  emergency_rating_C 600.00;
}
object switch { // CIM LoadBreakSwitch
  name "swt_sw8";
  from "54";
  to "94_open";
  phases A;
  status CLOSED;
  continuous_rating_A 400.00;
  emergency_rating_A 600.00;
}
object switch { // CIM LoadBreakSwitch
  name "swt_sw1";
  from "150r";
  to "149";
  phases ABC;
  status CLOSED;
  continuous_rating_A 400.00;
  continuous_rating_B 400.00;
  continuous_rating_C 400.00;
  emergency_rating_A 600.00;
  emergency_rating_B 600.00;
  emergency_rating_C 600.00;
}
object switch { // CIM LoadBreakSwitch
  name "swt_sw3";
  from "18";
  to "135";
  phases ABC;
  status CLOSED;
  continuous_rating_A 400.00;
  continuous_rating_B 400.00;
  continuous_rating_C 400.00;
  emergency_rating_A 600.00;
  emergency_rating_B 600.00;
  emergency_rating_C 600.00;
}
object switch { // CIM LoadBreakSwitch
  name "swt_sw2";
  from "13";
  to "152";
  phases ABC;
  status CLOSED;
  continuous_rating_A 400.00;
  continuous_rating_B 400.00;
  continuous_rating_C 400.00;
  emergency_rating_A 600.00;
  emergency_rating_B 600.00;
  emergency_rating_C 600.00;
}
object transformer_configuration {
  name "xcon_xfm1";
  connect_type DELTA_DELTA;
  primary_voltage 4160.000;
  secondary_voltage 480.000;
  power_rating 150.000;
  resistance 0.012700;
  reactance 0.027200;
}
object transformer {
  name "xf_xfm1";
  from "61s";
  to "610";
  phases ABC;
  configuration "xcon_xfm1";
  continuous_rating_A 22.90;
  continuous_rating_B 22.90;
  continuous_rating_C 22.90;
  emergency_rating_A 31.23;
  emergency_rating_B 31.23;
  emergency_rating_C 31.23;
  // vector group Dd;
}
object transformer {
  name "xf_xfs49a";
  from "49";
  to "s49a";
  phases AS;
  configuration "xcon_ct50";
  // vector group Iii;
}
object transformer {
  name "xf_xfs69a";
  from "69";
  to "s69a";
  phases AS;
  configuration "xcon_ct50";
  // vector group Iii;
}
object transformer {
  name "xf_xfs29a";
  from "29";
  to "s29a";
  phases AS;
  configuration "xcon_ct50";
  // vector group Iii;
}
object transformer {
  name "xf_xfs77b";
  from "77";
  to "s77b";
  phases BS;
  configuration "xcon_ct50";
  // vector group Iii;
}
object transformer {
  name "xf_xfs9a";
  from "9";
  to "s9a";
  phases AS;
  configuration "xcon_ct50";
  // vector group Iii;
}
object transformer {
  name "xf_xfs109a";
  from "109";
  to "s109a";
  phases AS;
  configuration "xcon_ct50";
  // vector group Iii;
}
object transformer {
  name "xf_xfs53a";
  from "53";
  to "s53a";
  phases AS;
  configuration "xcon_ct50";
  // vector group Iii;
}
object transformer {
  name "xf_xfs33a";
  from "33";
  to "s33a";
  phases AS;
  configuration "xcon_ct50";
  // vector group Iii;
}
object transformer {
  name "xf_xfs45a";
  from "45";
  to "s45a";
  phases AS;
  configuration "xcon_ct25";
  // vector group Iii;
}
object transformer {
  name "xf_xfs49c";
  from "49";
  to "s49c";
  phases CS;
  configuration "xcon_ct50";
  // vector group Iii;
}
object transformer {
  name "xf_xfs17c";
  from "17";
  to "s17c";
  phases CS;
  configuration "xcon_ct25";
  // vector group Iii;
}
object transformer {
  name "xf_xfs37a";
  from "37";
  to "s37a";
  phases AS;
  configuration "xcon_ct50";
  // vector group Iii;
}
object transformer {
  name "xf_xfs49b";
  from "49";
  to "s49b";
  phases BS;
  configuration "xcon_ct100";
  // vector group Iii;
}
object transformer {
  name "xf_xfs60a";
  from "60";
  to "s60a";
  phases AS;
  configuration "xcon_ct25";
  // vector group Iii;
}
object transformer {
  name "xf_xfs113a";
  from "113";
  to "s113a";
  phases AS;
  configuration "xcon_ct50";
  // vector group Iii;
}
object transformer {
  name "xf_xfs5c";
  from "5";
  to "s5c";
  phases CS;
  configuration "xcon_ct25";
  // vector group Iii;
}
object transformer {
  name "xf_xfs96b";
  from "96";
  to "s96b";
  phases BS;
  configuration "xcon_ct25";
  // vector group Iii;
}
object transformer {
  name "xf_xfs84c";
  from "84";
  to "s84c";
  phases CS;
  configuration "xcon_ct25";
  // vector group Iii;
}
object transformer {
  name "xf_xfs80b";
  from "80";
  to "s80b";
  phases BS;
  configuration "xcon_ct50";
  // vector group Iii;
}
object transformer {
  name "xf_xfs92c";
  from "92";
  to "s92c";
  phases CS;
  configuration "xcon_ct50";
  // vector group Iii;
}
object transformer {
  name "xf_xfs1a";
  from "1";
  to "s1a";
  phases AS;
  configuration "xcon_ct50";
  // vector group Iii;
}
object transformer {
  name "xf_xfs98a";
  from "98";
  to "s98a";
  phases AS;
  configuration "xcon_ct50";
  // vector group Iii;
}
object transformer {
  name "xf_xfs66c";
  from "66";
  to "s66c";
  phases CS;
  configuration "xcon_ct100";
  // vector group Iii;
}
object transformer {
  name "xf_xfs86b";
  from "86";
  to "s86b";
  phases BS;
  configuration "xcon_ct25";
  // vector group Iii;
}
object transformer {
  name "xf_xfs42a";
  from "42";
  to "s42a";
  phases AS;
  configuration "xcon_ct25";
  // vector group Iii;
}
object transformer {
  name "xf_xfs10a";
  from "10";
  to "s10a";
  phases AS;
  configuration "xcon_ct25";
  // vector group Iii;
}
object transformer {
  name "xf_xfs22b";
  from "22";
  to "s22b";
  phases BS;
  configuration "xcon_ct50";
  // vector group Iii;
}
object transformer {
  name "xf_xfs34c";
  from "34";
  to "s34c";
  phases CS;
  configuration "xcon_ct50";
  // vector group Iii;
}
object transformer {
  name "xf_xfs46a";
  from "46";
  to "s46a";
  phases AS;
  configuration "xcon_ct25";
  // vector group Iii;
}
object transformer {
  name "xf_xfs58b";
  from "58";
  to "s58b";
  phases BS;
  configuration "xcon_ct25";
  // vector group Iii;
}
object transformer {
  name "xf_xfs38b";
  from "38";
  to "s38b";
  phases BS;
  configuration "xcon_ct25";
  // vector group Iii;
}
object transformer {
  name "xf_xfs112a";
  from "112";
  to "s112a";
  phases AS;
  configuration "xcon_ct25";
  // vector group Iii;
}
object transformer {
  name "xf_xfs100c";
  from "100";
  to "s100c";
  phases CS;
  configuration "xcon_ct50";
  // vector group Iii;
}
object transformer {
  name "xf_xfs104c";
  from "104";
  to "s104c";
  phases CS;
  configuration "xcon_ct50";
  // vector group Iii;
}
object transformer {
  name "xf_xfs41c";
  from "41";
  to "s41c";
  phases CS;
  configuration "xcon_ct25";
  // vector group Iii;
}
object transformer {
  name "xf_xfs6c";
  from "6";
  to "s6c";
  phases CS;
  configuration "xcon_ct50";
  // vector group Iii;
}
object transformer {
  name "xf_xfs85c";
  from "85";
  to "s85c";
  phases CS;
  configuration "xcon_ct50";
  // vector group Iii;
}
object transformer {
  name "xf_xfs73c";
  from "73";
  to "s73c";
  phases CS;
  configuration "xcon_ct50";
  // vector group Iii;
}
object transformer {
  name "xf_xfs2b";
  from "2";
  to "s2b";
  phases BS;
  configuration "xcon_ct25";
  // vector group Iii;
}
object transformer {
  name "xf_xfs39b";
  from "39";
  to "s39b";
  phases BS;
  configuration "xcon_ct25";
  // vector group Iii;
}
object transformer {
  name "xf_xfs79a";
  from "79";
  to "s79a";
  phases AS;
  configuration "xcon_ct50";
  // vector group Iii;
}
object transformer {
  name "xf_xfs19a";
  from "19";
  to "s19a";
  phases AS;
  configuration "xcon_ct50";
  // vector group Iii;
}
object transformer {
  name "xf_xfs7a";
  from "7";
  to "s7a";
  phases AS;
  configuration "xcon_ct25";
  // vector group Iii;
}
object transformer {
  name "xf_xfs99b";
  from "99";
  to "s99b";
  phases BS;
  configuration "xcon_ct50";
  // vector group Iii;
}
object transformer {
  name "xf_xfs87b";
  from "87";
  to "s87b";
  phases BS;
  configuration "xcon_ct50";
  // vector group Iii;
}
object transformer {
  name "xf_xfs63a";
  from "63";
  to "s63a";
  phases AS;
  configuration "xcon_ct50";
  // vector group Iii;
}
object transformer {
  name "xf_xfs43b";
  from "43";
  to "s43b";
  phases BS;
  configuration "xcon_ct50";
  // vector group Iii;
}
object transformer {
  name "xf_xfs107b";
  from "107";
  to "s107b";
  phases BS;
  configuration "xcon_ct50";
  // vector group Iii;
}
object transformer {
  name "xf_xfs11a";
  from "11";
  to "s11a";
  phases AS;
  configuration "xcon_ct50";
  // vector group Iii;
}
object transformer {
  name "xf_xfs55a";
  from "55";
  to "s55a";
  phases AS;
  configuration "xcon_ct25";
  // vector group Iii;
}
object transformer {
  name "xf_xfs59b";
  from "59";
  to "s59b";
  phases BS;
  configuration "xcon_ct25";
  // vector group Iii;
}
object transformer {
  name "xf_xfs111a";
  from "111";
  to "s111a";
  phases AS;
  configuration "xcon_ct25";
  // vector group Iii;
}
object transformer {
  name "xf_xfs103c";
  from "103";
  to "s103c";
  phases CS;
  configuration "xcon_ct50";
  // vector group Iii;
}
object transformer {
  name "xf_xfs50c";
  from "50";
  to "s50c";
  phases CS;
  configuration "xcon_ct50";
  // vector group Iii;
}
object transformer {
  name "xf_xfs62c";
  from "62";
  to "s62c";
  phases CS;
  configuration "xcon_ct50";
  // vector group Iii;
}
object transformer {
  name "xf_xfs30c";
  from "30";
  to "s30c";
  phases CS;
  configuration "xcon_ct50";
  // vector group Iii;
}
object transformer {
  name "xf_xfs74c";
  from "74";
  to "s74c";
  phases CS;
  configuration "xcon_ct50";
  // vector group Iii;
}
object transformer {
  name "xf_xfs94a";
  from "94";
  to "s94a";
  phases AS;
  configuration "xcon_ct50";
  // vector group Iii;
}
object transformer {
  name "xf_xfs82a";
  from "82";
  to "s82a";
  phases AS;
  configuration "xcon_ct50";
  // vector group Iii;
}
object transformer {
  name "xf_xfs70a";
  from "70";
  to "s70a";
  phases AS;
  configuration "xcon_ct25";
  // vector group Iii;
}
object transformer {
  name "xf_xfs90b";
  from "90";
  to "s90b";
  phases BS;
  configuration "xcon_ct50";
  // vector group Iii;
}
object transformer {
  name "xf_xfs28a";
  from "28";
  to "s28a";
  phases AS;
  configuration "xcon_ct50";
  // vector group Iii;
}
object transformer {
  name "xf_xfs68a";
  from "68";
  to "s68a";
  phases AS;
  configuration "xcon_ct25";
  // vector group Iii;
}
object transformer {
  name "xf_xfs88a";
  from "88";
  to "s88a";
  phases AS;
  configuration "xcon_ct50";
  // vector group Iii;
}
object transformer {
  name "xf_xfs32c";
  from "32";
  to "s32c";
  phases CS;
  configuration "xcon_ct25";
  // vector group Iii;
}
object transformer {
  name "xf_xfs52a";
  from "52";
  to "s52a";
  phases AS;
  configuration "xcon_ct50";
  // vector group Iii;
}
object transformer {
  name "xf_xfs64b";
  from "64";
  to "s64b";
  phases BS;
  configuration "xcon_ct100";
  // vector group Iii;
}
object transformer {
  name "xf_xfs20a";
  from "20";
  to "s20a";
  phases AS;
  configuration "xcon_ct50";
  // vector group Iii;
}
object transformer {
  name "xf_xfs12b";
  from "12";
  to "s12b";
  phases BS;
  configuration "xcon_ct25";
  // vector group Iii;
}
object transformer {
  name "xf_xfs24c";
  from "24";
  to "s24c";
  phases CS;
  configuration "xcon_ct50";
  // vector group Iii;
}
object transformer {
  name "xf_xfs56b";
  from "56";
  to "s56b";
  phases BS;
  configuration "xcon_ct25";
  // vector group Iii;
}
object transformer {
  name "xf_xfs16c";
  from "16";
  to "s16c";
  phases CS;
  configuration "xcon_ct50";
  // vector group Iii;
}
object transformer {
  name "xf_xfs102c";
  from "102";
  to "s102c";
  phases CS;
  configuration "xcon_ct25";
  // vector group Iii;
}
object transformer {
  name "xf_xfs106b";
  from "106";
  to "s106b";
  phases BS;
  configuration "xcon_ct50";
  // vector group Iii;
}
object transformer {
  name "xf_xfs114a";
  from "114";
  to "s114a";
  phases AS;
  configuration "xcon_ct25";
  // vector group Iii;
}
object transformer {
  name "xf_xfs31c";
  from "31";
  to "s31c";
  phases CS;
  configuration "xcon_ct25";
  // vector group Iii;
}
object transformer {
  name "xf_xfs51a";
  from "51";
  to "s51a";
  phases AS;
  configuration "xcon_ct25";
  // vector group Iii;
}
object transformer {
  name "xf_xfs75c";
  from "75";
  to "s75c";
  phases CS;
  configuration "xcon_ct50";
  // vector group Iii;
}
object transformer {
  name "xf_xfs95b";
  from "95";
  to "s95b";
  phases BS;
  configuration "xcon_ct25";
  // vector group Iii;
}
object transformer {
  name "xf_xfs71a";
  from "71";
  to "s71a";
  phases AS;
  configuration "xcon_ct50";
  // vector group Iii;
}
object transformer {
  name "xf_xfs83c";
  from "83";
  to "s83c";
  phases CS;
  configuration "xcon_ct25";
  // vector group Iii;
}
object transformer {
  name "xf_xfs4c";
  from "4";
  to "s4c";
  phases CS;
  configuration "xcon_ct50";
  // vector group Iii;
}
object triplex_node {
  name "s1a";
...